Version 4.1
SHEET 1 1276 1060
WIRE -752 176 -816 176
WIRE -640 192 -688 192
WIRE -608 192 -640 192
WIRE -512 192 -528 192
WIRE -480 192 -512 192
WIRE -336 192 -400 192
WIRE -896 208 -912 208
WIRE -752 208 -896 208
WIRE -1312 240 -1344 240
WIRE -1136 240 -1184 240
WIRE -1312 272 -1344 272
WIRE -1136 272 -1184 272
WIRE -816 288 -816 176
WIRE -816 288 -880 288
WIRE -816 320 -816 288
WIRE -752 320 -816 320
WIRE -640 320 -640 192
WIRE -640 320 -672 320
WIRE -880 336 -880 288
WIRE -1312 368 -1344 368
WIRE -1136 368 -1184 368
WIRE -512 368 -512 192
WIRE -464 368 -512 368
WIRE -336 384 -336 192
WIRE -336 384 -400 384
WIRE -192 384 -336 384
WIRE -1312 400 -1344 400
WIRE -1136 400 -1184 400
WIRE -464 400 -512 400
WIRE -752 432 -816 432
WIRE -640 432 -672 432
WIRE -880 464 -880 416
WIRE -816 464 -816 432
WIRE -816 464 -880 464
WIRE -1280 528 -1360 528
WIRE -816 544 -816 464
WIRE -752 544 -816 544
WIRE -1360 560 -1360 528
WIRE -1040 560 -1088 560
WIRE -1008 560 -1040 560
WIRE -640 560 -640 432
WIRE -640 560 -688 560
WIRE -608 560 -640 560
WIRE -512 560 -512 400
WIRE -512 560 -528 560
WIRE -480 560 -512 560
WIRE -192 560 -400 560
WIRE -1280 576 -1280 528
WIRE -1216 576 -1280 576
WIRE -896 576 -912 576
WIRE -752 576 -896 576
WIRE -1008 592 -1088 592
WIRE -1216 608 -1280 608
WIRE -1040 624 -1088 624
WIRE -1008 624 -1040 624
WIRE -1360 656 -1360 640
WIRE -1280 656 -1280 608
WIRE -1280 656 -1360 656
FLAG -896 576 V0+
FLAG -896 208 V0-
FLAG -720 160 +8V
FLAG -432 352 +8V
FLAG -720 528 +8V
FLAG -720 592 -8V
FLAG -432 416 -8V
FLAG -720 224 -8V
FLAG -192 384 Out
FLAG -192 560 0
FLAG -1040 560 +8V
FLAG -1008 592 0
FLAG -1040 624 -8V
FLAG -1344 240 +8V
FLAG -1344 272 0
FLAG -1136 272 V0-
FLAG -1136 240 V0+
FLAG -1344 368 +8V
FLAG -1344 400 0
FLAG -1136 368 V1+
FLAG -1136 400 V1-
SYMBOL res -864 432 R180
WINDOW 0 36 76 Left 2
WINDOW 3 36 40 Left 2
SYMATTR InstName Rg
SYMATTR Value 25
SYMATTR SpiceLine tol=1 pwr=0.250
SYMBOL res -656 416 R90
WINDOW 0 0 56 VBottom 2
WINDOW 3 32 56 VTop 2
SYMATTR InstName R9
SYMATTR Value 25k
SYMATTR SpiceLine tol=1 pwr=0.1
SYMBOL res -656 304 R90
WINDOW 0 0 56 VBottom 2
WINDOW 3 32 56 VTop 2
SYMATTR InstName R10
SYMATTR Value 25k
SYMATTR SpiceLine tol=1 pwr=0.1
SYMBOL res -512 176 R90
WINDOW 0 0 56 VBottom 2
WINDOW 3 32 56 VTop 2
SYMATTR InstName R11
SYMATTR Value 25k
SYMATTR SpiceLine tol=1 pwr=0.1
SYMBOL res -512 544 R90
WINDOW 0 0 56 VBottom 2
WINDOW 3 32 56 VTop 2
SYMATTR InstName R12
SYMATTR Value 25k
SYMATTR SpiceLine tol=1 pwr=0.1
SYMBOL res -384 176 R90
WINDOW 0 0 56 VBottom 2
WINDOW 3 32 56 VTop 2
SYMATTR InstName R13
SYMATTR Value 25k
SYMATTR SpiceLine tol=1 pwr=0.1
SYMBOL res -384 544 R90
WINDOW 0 0 56 VBottom 2
WINDOW 3 32 56 VTop 2
SYMATTR InstName R14
SYMATTR Value 25k
SYMATTR SpiceLine tol=1 pwr=0.1
SYMBOL OpAmps\\UniversalOpAmp -720 192 R0
SYMATTR InstName U1
SYMBOL OpAmps\\UniversalOpAmp -432 384 R0
SYMATTR InstName U2
SYMBOL OpAmps\\UniversalOpAmp -720 560 R0
SYMATTR InstName U3
SYMBOL voltage -1360 544 M0
WINDOW 123 0 0 Left 0
WINDOW 39 -95 125 Left 2
WINDOW 0 -53 15 Left 2
WINDOW 3 48 153 VLeft 2
SYMATTR SpiceLine Rser=1mi
SYMATTR InstName V1
SYMATTR Value SINE(0 311V 60)
SYMBOL symmetric-source\\SPICE-models\\Symmetric_Source -1152 592 R0
SYMATTR InstName U4
SYMBOL wheatstone-bridge\\SPICE-models\\WheatStone200g -1248 256 R0
SYMATTR InstName U5
SYMBOL wheatstone-bridge\\SPICE-models\\WheatStone0g -1248 384 R0
SYMATTR InstName U6
TEXT -1376 688 Left 2 !.tran 0 30mi 4mi
