Version 4.1
SHEET 1 1276 1060
WIRE -960 272 -1008 272
WIRE -1008 304 -1008 272
WIRE -608 304 -672 304
WIRE -544 304 -608 304
WIRE -304 304 -336 304
WIRE -960 320 -960 272
WIRE -896 320 -960 320
WIRE -544 320 -544 304
WIRE -464 320 -544 320
WIRE -304 336 -336 336
WIRE -896 352 -960 352
WIRE -512 352 -544 352
WIRE -464 352 -512 352
WIRE -608 368 -672 368
WIRE -544 368 -544 352
WIRE -544 368 -608 368
WIRE -304 368 -336 368
WIRE -512 384 -512 352
WIRE -1008 400 -1008 384
WIRE -960 400 -960 352
WIRE -960 400 -1008 400
WIRE -1088 512 -1120 512
WIRE -912 512 -960 512
WIRE -672 528 -720 528
WIRE -1088 544 -1120 544
WIRE -912 544 -960 544
WIRE -720 544 -720 528
WIRE -480 544 -528 544
WIRE -448 544 -480 544
WIRE -672 560 -672 528
WIRE -656 560 -672 560
WIRE -448 576 -528 576
WIRE -656 592 -672 592
WIRE -480 608 -528 608
WIRE -448 608 -480 608
WIRE -1088 640 -1120 640
WIRE -912 640 -960 640
WIRE -720 640 -720 624
WIRE -672 640 -672 592
WIRE -672 640 -720 640
WIRE -1088 672 -1120 672
WIRE -912 672 -960 672
FLAG -480 544 +8V
FLAG -448 576 0
FLAG -480 608 -8V
FLAG -1120 512 +8V
FLAG -1120 544 0
FLAG -912 544 V0-
FLAG -912 512 V0+
FLAG -1120 640 +8V
FLAG -1120 672 0
FLAG -912 640 V1+
FLAG -912 672 V1-
FLAG -896 288 V0-
FLAG -896 384 V0+
FLAG -784 272 +8V
FLAG -784 400 -8V
FLAG -304 304 +8V
FLAG -304 336 -8V
FLAG -512 384 0
FLAG -304 368 OUT
SYMBOL voltage -720 528 M0
WINDOW 123 0 0 Left 0
WINDOW 39 -101 126 Left 2
WINDOW 0 -16 10 Left 2
WINDOW 3 48 157 VLeft 2
SYMATTR SpiceLine Rser=1mi
SYMATTR InstName V1
SYMATTR Value SINE(0 311V 60)
SYMBOL symmetric-source\\SPICE-models\\Symmetric_Source -592 576 R0
WINDOW 3 50 -76 Center 2
SYMATTR InstName U4
SYMBOL wheatstone-bridge\\SPICE-models\\WheatStone200g -1024 528 R0
SYMATTR InstName U5
SYMBOL wheatstone-bridge\\SPICE-models\\WheatStone0g -1024 656 R0
SYMATTR InstName U6
SYMBOL amp\\SPICE-models\\INA114 -784 336 R0
SYMATTR InstName U7
SYMBOL res -992 400 R180
WINDOW 0 36 76 Left 2
WINDOW 3 36 40 Left 2
SYMATTR InstName Rg
SYMATTR Value 25
SYMATTR SpiceLine tol=1 pwr=0.250
SYMBOL zener -592 368 R180
WINDOW 0 -1 81 Left 2
WINDOW 3 -36 -18 Left 2
SYMATTR InstName D1
SYMATTR Value UMZ5_1N
SYMBOL filter\\SPICE-models\\LowPass -400 336 R0
SYMATTR InstName U1
TEXT -736 680 Left 2 !.tran 0 1 0
