Version 4.1
SHEET 1 880 1060
WIRE 0 80 -64 80
WIRE 112 96 64 96
WIRE 144 96 112 96
WIRE 240 96 224 96
WIRE 272 96 240 96
WIRE 416 96 352 96
WIRE -144 112 -160 112
WIRE 0 112 -144 112
WIRE -480 144 -560 144
WIRE -416 144 -480 144
WIRE -64 192 -64 80
WIRE -64 192 -128 192
WIRE -64 224 -64 192
WIRE 0 224 -64 224
WIRE 112 224 112 96
WIRE 112 224 80 224
WIRE -128 240 -128 192
WIRE -784 256 -784 224
WIRE -560 272 -560 224
WIRE -416 272 -416 224
WIRE 240 272 240 96
WIRE 288 272 240 272
WIRE 416 288 416 96
WIRE 416 288 352 288
WIRE 528 288 416 288
WIRE 560 288 528 288
WIRE -784 304 -784 256
WIRE -560 304 -560 272
WIRE -416 304 -416 272
WIRE 288 304 240 304
WIRE 0 336 -64 336
WIRE 112 336 80 336
WIRE 528 352 528 288
WIRE -128 368 -128 320
WIRE -64 368 -64 336
WIRE -64 368 -128 368
WIRE -480 384 -560 384
WIRE -416 384 -480 384
WIRE -64 448 -64 368
WIRE 0 448 -64 448
WIRE 112 464 112 336
WIRE 112 464 64 464
WIRE 144 464 112 464
WIRE 240 464 240 304
WIRE 240 464 224 464
WIRE 272 464 240 464
WIRE 528 464 528 416
WIRE 528 464 352 464
WIRE 560 464 528 464
WIRE -144 480 -160 480
WIRE 0 480 -144 480
WIRE -352 544 -480 544
WIRE -352 576 -352 544
WIRE -352 576 -416 576
WIRE -288 576 -352 576
WIRE -592 592 -672 592
WIRE -480 672 -480 544
WIRE -288 688 -288 640
WIRE -224 688 -288 688
WIRE -160 688 -160 672
WIRE -160 688 -224 688
WIRE -32 688 -32 672
WIRE 48 688 -32 688
WIRE 144 688 48 688
WIRE 256 688 144 688
WIRE -672 720 -672 592
WIRE -592 720 -592 592
WIRE -480 768 -480 752
WIRE -224 768 -224 752
WIRE -224 768 -480 768
WIRE -96 768 -96 672
WIRE -96 768 -224 768
WIRE 48 768 48 752
WIRE 48 768 -96 768
WIRE 144 768 144 752
WIRE 144 768 48 768
WIRE 256 768 144 768
WIRE -480 784 -480 768
WIRE -224 784 -224 768
WIRE 48 784 48 768
WIRE 144 784 144 768
WIRE -416 848 -416 640
WIRE -224 848 -416 848
WIRE -160 848 -224 848
WIRE 48 848 -32 848
WIRE 144 848 48 848
WIRE 256 848 144 848
WIRE -160 864 -160 848
WIRE -96 864 -96 768
WIRE -32 864 -32 848
WIRE -416 880 -416 848
WIRE -288 880 -288 688
WIRE -672 896 -672 800
WIRE -592 896 -592 800
WIRE -592 896 -672 896
WIRE -352 944 -416 944
WIRE -288 944 -352 944
WIRE -480 976 -480 864
WIRE -352 976 -352 944
WIRE -352 976 -480 976
FLAG -560 272 V0-
FLAG -416 272 V0+
FLAG -480 144 +8V
FLAG -480 384 0
FLAG -784 144 +8V
FLAG -784 384 0
FLAG -864 256 V0-
FLAG -144 480 V0+
FLAG -144 112 V0-
FLAG 32 64 +8V
FLAG 320 256 +8V
FLAG 32 432 +8V
FLAG 32 496 -8V
FLAG 320 320 -8V
FLAG 32 128 -8V
FLAG 560 288 Out
FLAG 560 464 0
FLAG 256 688 +8V
FLAG 256 768 0
FLAG 256 848 -8V
SYMBOL res -576 128 R0
SYMATTR InstName R1
SYMATTR Value 350.492
SYMBOL res -432 128 R0
SYMATTR InstName R2
SYMATTR Value 350.110
SYMBOL res -576 288 R0
SYMATTR InstName R3
SYMATTR Value 350.284
SYMBOL res -432 288 R0
SYMATTR InstName R4
SYMATTR Value 350.270
SYMBOL res -880 272 R270
WINDOW 0 32 56 VTop 2
WINDOW 3 0 56 VBottom 2
SYMATTR InstName R6
SYMATTR Value 220K
SYMATTR SpiceLine tol=5 pwr=0.250
SYMBOL res -800 128 R0
SYMATTR InstName R7
SYMATTR Value 295.9k
SYMBOL res -800 288 R0
SYMATTR InstName R8
SYMATTR Value 204.1k
SYMBOL res -112 336 R180
WINDOW 0 36 76 Left 2
WINDOW 3 36 40 Left 2
SYMATTR InstName Rg
SYMATTR Value 25
SYMATTR SpiceLine tol=1 pwr=0.250
SYMBOL res 96 320 R90
WINDOW 0 0 56 VBottom 2
WINDOW 3 32 56 VTop 2
SYMATTR InstName R9
SYMATTR Value 25k
SYMATTR SpiceLine tol=1 pwr=0.1
SYMBOL res 96 208 R90
WINDOW 0 0 56 VBottom 2
WINDOW 3 32 56 VTop 2
SYMATTR InstName R10
SYMATTR Value 25k
SYMATTR SpiceLine tol=1 pwr=0.1
SYMBOL res 240 80 R90
WINDOW 0 0 56 VBottom 2
WINDOW 3 32 56 VTop 2
SYMATTR InstName R11
SYMATTR Value 25k
SYMATTR SpiceLine tol=1 pwr=0.1
SYMBOL res 240 448 R90
WINDOW 0 0 56 VBottom 2
WINDOW 3 32 56 VTop 2
SYMATTR InstName R12
SYMATTR Value 25k
SYMATTR SpiceLine tol=1 pwr=0.1
SYMBOL res 368 80 R90
WINDOW 0 0 56 VBottom 2
WINDOW 3 32 56 VTop 2
SYMATTR InstName R13
SYMATTR Value 25k
SYMATTR SpiceLine tol=1 pwr=0.1
SYMBOL res 368 448 R90
WINDOW 0 0 56 VBottom 2
WINDOW 3 32 56 VTop 2
SYMATTR InstName R14
SYMATTR Value 25k
SYMATTR SpiceLine tol=1 pwr=0.1
SYMBOL OpAmps\\UniversalOpAmp 32 96 R0
SYMATTR InstName U1
SYMBOL OpAmps\\UniversalOpAmp 320 288 R0
SYMATTR InstName U2
SYMBOL OpAmps\\UniversalOpAmp 32 464 R0
SYMATTR InstName U3
SYMBOL voltage -672 704 M0
WINDOW 123 0 0 Left 0
WINDOW 39 24 124 Left 2
SYMATTR SpiceLine Rser=1mi
SYMATTR InstName V1
SYMATTR Value SINE(0 311V 60)
SYMBOL ind -608 704 R0
WINDOW 3 39 63 Left 2
SYMATTR Value 1.713H
SYMATTR InstName L1
SYMATTR Type ind
SYMBOL ind -464 656 M0
WINDOW 0 38 12 Left 2
WINDOW 3 35 40 Left 2
SYMATTR InstName L2
SYMATTR Value 2.87mH
SYMATTR Type ind
SYMBOL zener 544 416 R180
WINDOW 0 24 64 Left 2
WINDOW 3 24 0 Left 2
SYMATTR InstName D2
SYMATTR Value UMZ5_1N
SYMBOL ind -464 768 M0
WINDOW 0 36 59 Left 2
WINDOW 3 36 89 Left 2
SYMATTR InstName L3
SYMATTR Value 2.87mH
SYMATTR Type ind
SYMBOL cap -240 688 R0
SYMATTR Value 2200µ
SYMATTR InstName C1
SYMATTR SpiceLine V=25 Irms=2.05 Rser=0.028 Lser=0 mfg="Nichicon" pn="UPL1E222MRH6" type="Al electrolytic"
SYMBOL diode -304 576 R0
WINDOW 3 -28 84 Left 2
SYMATTR Value 1N4007
SYMATTR InstName D1
SYMBOL diode -400 640 R180
WINDOW 0 24 64 Left 2
WINDOW 3 -24 -18 Left 2
SYMATTR InstName D3
SYMATTR Value 1N4007
SYMBOL diode -272 944 R180
WINDOW 0 24 64 Left 2
WINDOW 3 -23 -15 Left 2
SYMATTR InstName D4
SYMATTR Value 1N4007
SYMBOL diode -432 880 R0
WINDOW 3 -28 78 Left 2
SYMATTR Value 1N4007
SYMATTR InstName D5
SYMBOL Reguladores\\LM7808 -96 640 R0
SYMATTR InstName U4
SYMBOL Reguladores\\LM7908 -96 896 M180
SYMATTR InstName U5
SYMBOL cap 32 688 R0
SYMATTR InstName C3
SYMATTR Value 100nF
SYMBOL cap 32 784 R0
SYMATTR InstName C4
SYMATTR Value 100nF
SYMBOL cap 128 688 R0
WINDOW 3 24 56 Left 2
SYMATTR InstName C5
SYMATTR Value 100µ
SYMATTR Description Capacitor
SYMATTR Type cap
SYMATTR SpiceLine V=10 Irms=3.87298 Rser=0.015 Lser=0 mfg="KEMET" pn="A700X107M010ATE015" type="Al electrolytic"
SYMBOL cap 128 784 R0
WINDOW 3 24 56 Left 2
SYMATTR InstName C6
SYMATTR Value 100µ
SYMATTR Description Capacitor
SYMATTR Type cap
SYMATTR SpiceLine V=10 Irms=3.87298 Rser=0.015 Lser=0 mfg="KEMET" pn="A700X107M010ATE015" type="Al electrolytic"
SYMBOL cap -240 784 R0
WINDOW 3 27 51 Left 2
SYMATTR Value 2200µ
SYMATTR InstName C2
SYMATTR SpiceLine V=25 Irms=2.05 Rser=0.028 Lser=0 mfg="Nichicon" pn="UPL1E222MRH6" type="Al electrolytic"
TEXT 200 928 Right 2 !.tran 16.7mi
TEXT -840 856 Left 2 !K L1 L2 L3 1.
