Version 4.1
SHEET 1 1276 1060
WIRE -1264 288 -1296 288
WIRE -1088 288 -1136 288
WIRE -816 288 -864 288
WIRE -1264 320 -1296 320
WIRE -1088 320 -1136 320
WIRE -864 320 -864 288
WIRE -512 320 -528 320
WIRE -816 336 -816 288
WIRE -752 336 -816 336
WIRE -752 368 -816 368
WIRE -512 384 -528 384
WIRE -1264 416 -1296 416
WIRE -1088 416 -1136 416
WIRE -864 416 -864 400
WIRE -816 416 -816 368
WIRE -816 416 -864 416
WIRE -1264 448 -1296 448
WIRE -1088 448 -1136 448
WIRE -1232 544 -1280 544
WIRE -1280 560 -1280 544
WIRE -1040 560 -1088 560
WIRE -1008 560 -1040 560
WIRE -1232 576 -1232 544
WIRE -1216 576 -1232 576
WIRE -1008 592 -1088 592
WIRE -1216 608 -1232 608
WIRE -1040 624 -1088 624
WIRE -1008 624 -1040 624
WIRE -1280 656 -1280 640
WIRE -1232 656 -1232 608
WIRE -1232 656 -1280 656
FLAG -1040 560 +8V
FLAG -1008 592 0
FLAG -1040 624 -8V
FLAG -1296 288 +8V
FLAG -1296 320 0
FLAG -1088 320 V0-
FLAG -1088 288 V0+
FLAG -1296 416 +8V
FLAG -1296 448 0
FLAG -1088 416 V1+
FLAG -1088 448 V1-
FLAG -752 304 V0-
FLAG -752 400 V0+
FLAG -512 320 OUT-INA
FLAG -512 384 0
FLAG -640 288 +8V
FLAG -640 416 -8V
SYMBOL voltage -1280 544 M0
WINDOW 123 0 0 Left 0
WINDOW 39 -101 126 Left 2
WINDOW 0 -16 10 Left 2
WINDOW 3 47 143 VLeft 2
SYMATTR SpiceLine Rser=1mi
SYMATTR InstName V1
SYMATTR Value SINE(0 311V 60)
SYMBOL symmetric-source\\SPICE-models\\Symmetric_Source -1152 592 R0
WINDOW 3 50 -76 Center 2
SYMATTR InstName U4
SYMBOL wheatstone-bridge\\SPICE-models\\WheatStone200g -1200 304 R0
SYMATTR InstName U5
SYMBOL wheatstone-bridge\\SPICE-models\\WheatStone0g -1200 432 R0
SYMATTR InstName U6
SYMBOL amp\\SPICE-models\\INA114 -640 352 R0
SYMATTR InstName U7
SYMBOL res -848 416 R180
WINDOW 0 36 76 Left 2
WINDOW 3 36 40 Left 2
SYMATTR InstName Rg
SYMATTR Value 25
SYMATTR SpiceLine tol=1 pwr=0.250
TEXT -1296 696 Left 2 !.tran 0 30mi 4mi
